Version 4
SHEET 1 880 680
WIRE 192 -16 -144 -16
WIRE 400 -16 256 -16
WIRE 544 -16 400 -16
WIRE -144 48 -144 -16
WIRE 400 48 400 -16
WIRE 544 48 544 -16
WIRE -144 192 -144 128
WIRE 336 192 -144 192
WIRE 400 192 400 128
WIRE 400 192 336 192
WIRE 544 192 544 128
WIRE 544 192 400 192
WIRE 336 272 336 192
FLAG 336 272 0
SYMBOL voltage -144 32 R0
WINDOW 123 24 124 Left 2
WINDOW 39 0 0 Left 0
SYMATTR Value2 AC AC1
SYMATTR InstName V1
SYMATTR Value 5
SYMBOL cap 256 -32 R90
WINDOW 0 0 32 VBottom 2
WINDOW 3 32 32 VTop 2
SYMATTR InstName C1
SYMATTR Value 2µ
SYMBOL res 416 144 R180
WINDOW 0 36 76 Left 2
WINDOW 3 36 40 Left 2
SYMATTR InstName R1
SYMATTR Value 10k
SYMBOL res 528 32 R0
SYMATTR InstName RLoad
SYMATTR Value 100k
TEXT -24 232 Left 2 !.ac dec 20 1 1000k
