Version 4
SHEET 1 880 680
WIRE 192 128 -336 128
WIRE 192 208 192 128
WIRE -64 256 -64 208
WIRE -64 256 -112 256
WIRE 128 256 -64 256
WIRE -112 272 -112 256
WIRE -336 320 -336 128
WIRE 192 320 192 304
WIRE 256 320 192 320
WIRE 192 336 192 320
WIRE -336 464 -336 400
WIRE -112 464 -112 352
WIRE 192 464 192 416
WIRE 0 0 0 0
FLAG 256 320 OUT
IOPIN 256 320 In
FLAG -336 464 0
FLAG 192 464 0
FLAG -112 464 0
FLAG -64 208 In
IOPIN -64 208 In
SYMBOL voltage -336 304 R0
WINDOW 123 0 0 Left 0
WINDOW 39 0 0 Left 0
SYMATTR InstName V1
SYMATTR Value 5
SYMBOL npn 128 208 R0
SYMATTR InstName Q1
SYMBOL res 176 320 R0
SYMATTR InstName R1
SYMATTR Value 10k
SYMBOL voltage -112 256 R0
WINDOW 123 0 0 Left 0
WINDOW 39 0 0 Left 0
SYMATTR InstName V2
SYMATTR Value SINE(2.5 1 1)
TEXT -368 488 Left 2 !.tran 0 10s 0 0.001s
