Version 4
SHEET 1 880 680
WIRE 0 192 -336 192
WIRE 224 192 0 192
WIRE 0 208 0 192
WIRE 224 272 224 192
WIRE 0 304 0 288
WIRE 96 304 0 304
WIRE -336 320 -336 192
WIRE -112 320 -208 320
WIRE 0 320 0 304
WIRE 96 320 96 304
WIRE 160 320 96 320
WIRE -112 368 -112 320
WIRE -112 368 -192 368
WIRE -64 368 -112 368
WIRE 224 384 224 368
WIRE 320 384 224 384
WIRE 224 400 224 384
WIRE -336 416 -336 400
WIRE -336 416 -448 416
WIRE -448 448 -448 416
WIRE -192 480 -192 448
WIRE -336 544 -336 496
WIRE 0 544 0 416
WIRE 0 544 -336 544
WIRE 224 544 224 480
WIRE 224 544 0 544
FLAG 320 384 out
IOPIN 320 384 Out
FLAG -208 320 in
IOPIN -208 320 In
FLAG -192 480 0
FLAG -448 448 0
SYMBOL voltage -336 304 R0
WINDOW 123 0 0 Left 0
WINDOW 39 0 0 Left 0
SYMATTR InstName V1
SYMATTR Value 10
SYMBOL pnp -64 416 M180
SYMATTR InstName Q1
SYMBOL res -16 192 R0
SYMATTR InstName R1
SYMATTR Value 10k
SYMBOL npn 160 272 R0
SYMATTR InstName Q2
SYMBOL res 208 384 R0
SYMATTR InstName R2
SYMATTR Value 10k
SYMBOL voltage -192 352 R0
WINDOW 123 0 0 Left 0
WINDOW 39 0 0 Left 0
SYMATTR InstName V2
SYMATTR Value SINE(0 1 5)
SYMBOL voltage -336 400 R0
WINDOW 123 0 0 Left 0
WINDOW 39 0 0 Left 0
SYMATTR InstName V3
SYMATTR Value 10
TEXT -368 624 Left 2 !.tran 0 2s 0 0.001s
