Version 4
SHEET 1 880 680
WIRE -32 48 -576 48
WIRE -576 80 -576 48
WIRE -32 80 -32 48
WIRE -576 208 -576 160
WIRE -32 208 -32 160
WIRE -96 256 -336 256
WIRE -336 320 -336 256
WIRE -32 352 -32 304
WIRE -336 464 -336 400
WIRE -32 480 -32 432
FLAG -336 464 0
FLAG -576 208 0
FLAG -32 480 0
SYMBOL voltage -336 304 R0
WINDOW 123 0 0 Left 0
WINDOW 39 0 0 Left 0
SYMATTR InstName Ub
SYMATTR Value 5
SYMBOL npn -96 208 R0
SYMATTR InstName Q1
SYMBOL res -48 64 R0
SYMATTR InstName Load
SYMATTR Value 300
SYMBOL res -48 336 R0
SYMATTR InstName Re
SYMATTR Value 1k
SYMBOL voltage -576 64 R0
SYMATTR InstName Ucc
SYMATTR Value 10
TEXT -608 504 Left 2 !.dc Ucc 6 10 0.1
TEXT 24 328 Left 2 ;Ube = 0.6~0.9V tutaj\nIc = Ue/Re = (Ub-Ube)/Re = (5-0.7)/1k= 0,0043 = ~4,3mA
