Version 4
SHEET 1 880 680
WIRE 112 16 -336 16
WIRE 320 16 112 16
WIRE 448 16 320 16
WIRE 112 80 112 16
WIRE 320 96 320 16
WIRE 448 96 448 16
WIRE -336 128 -336 16
WIRE 448 224 448 176
WIRE 528 224 448 224
WIRE 592 224 528 224
WIRE 448 256 448 224
WIRE 112 304 112 160
WIRE 160 304 112 304
WIRE 208 304 160 304
WIRE 320 304 320 176
WIRE 320 304 272 304
WIRE 384 304 320 304
WIRE 112 320 112 304
WIRE -208 368 -240 368
WIRE -96 368 -208 368
WIRE 48 368 -16 368
WIRE -336 464 -336 208
WIRE -208 464 -208 448
WIRE 112 464 112 416
WIRE 448 464 448 352
WIRE 160 480 160 304
WIRE 224 480 160 480
WIRE 336 528 288 528
WIRE 528 528 528 224
WIRE 528 528 416 528
WIRE 224 624 224 576
FLAG 592 224 OUT
IOPIN 592 224 In
FLAG -208 464 0
FLAG -336 464 0
FLAG 112 464 0
FLAG 448 464 0
FLAG 224 624 0
FLAG -240 368 VIN
IOPIN -240 368 In
SYMBOL voltage -336 112 R0
WINDOW 123 0 0 Left 0
WINDOW 39 0 0 Left 0
SYMATTR InstName V1
SYMATTR Value 5
SYMBOL res 96 64 R0
SYMATTR InstName R2
SYMATTR Value 1k
SYMBOL res 432 80 R0
SYMATTR InstName R4
SYMATTR Value 1k
SYMBOL npn 48 320 R0
SYMATTR InstName Q1
SYMBOL npn 384 256 R0
SYMATTR InstName Q2
SYMBOL cap 272 288 R90
WINDOW 0 0 32 VBottom 2
WINDOW 3 32 32 VTop 2
SYMATTR InstName C1
SYMATTR Value 20µ
SYMBOL res 0 352 R90
WINDOW 0 0 56 VBottom 2
WINDOW 3 32 56 VTop 2
SYMATTR InstName R1
SYMATTR Value 10k
SYMBOL res 304 80 R0
SYMATTR InstName R3
SYMATTR Value 10k
SYMBOL voltage -208 352 R0
WINDOW 123 0 0 Left 0
WINDOW 39 0 0 Left 0
SYMATTR InstName V2
SYMATTR Value PULSE(0 5 0.5 0.001 0.001 0.05 1.5)
SYMBOL res 320 544 R270
WINDOW 0 32 56 VTop 2
WINDOW 3 0 56 VBottom 2
SYMATTR InstName R5
SYMATTR Value 20k
SYMBOL npn 288 480 M0
SYMATTR InstName Q3
TEXT -368 488 Left 2 !.tran 0 10s 0 0.001s
