Version 4
SHEET 1 880 680
WIRE 64 -16 -144 -16
WIRE 384 -16 128 -16
WIRE -144 48 -144 -16
WIRE 384 64 384 -16
WIRE -144 192 -144 128
WIRE -48 192 -144 192
WIRE 384 192 384 144
WIRE 384 192 -48 192
WIRE -48 256 -48 192
FLAG -48 256 0
SYMBOL Misc\\signal -144 32 R0
WINDOW 123 0 0 Left 0
WINDOW 39 0 0 Left 0
SYMATTR InstName V2
SYMATTR Value SINE(0 2 50 0 0 0.5 0)
SYMBOL res 368 48 R0
SYMATTR InstName Robc
SYMATTR Value 10k
SYMBOL diode 64 0 R270
WINDOW 0 32 32 VTop 2
WINDOW 3 0 32 VBottom 2
SYMATTR InstName D1
TEXT -168 296 Left 2 !.tran 0 0.5 0 0.001
