Version 4
SHEET 1 880 680
WIRE 64 -16 -144 -16
WIRE 208 -16 128 -16
WIRE 384 -16 208 -16
WIRE -144 48 -144 -16
WIRE 208 64 208 -16
WIRE 384 64 384 -16
WIRE -144 192 -144 128
WIRE -48 192 -144 192
WIRE 208 192 208 144
WIRE 208 192 -48 192
WIRE 384 192 384 144
WIRE 384 192 208 192
WIRE -48 256 -48 192
FLAG -48 256 0
SYMBOL Misc\\signal -144 32 R0
WINDOW 123 0 0 Left 0
WINDOW 39 0 0 Left 0
SYMATTR InstName V2
SYMATTR Value PULSE(0 1 1 0 0 0.2 1)
SYMBOL cap 128 -32 R90
WINDOW 0 0 32 VBottom 2
WINDOW 3 32 32 VTop 2
SYMATTR InstName C1
SYMATTR Value 1µ
SYMBOL res 192 48 R0
SYMATTR InstName R1
SYMATTR Value 1k
SYMBOL res 368 48 R0
SYMATTR InstName R2
SYMATTR Value 10k
TEXT -168 296 Left 2 !.tran 0 4 0 0.001
