* Z:\home\cod3r\Data\Elektronika\1_dzielnik_napiecia\1.asc
V1 N001 0 5
R1 N001 N002 1k
R2 N002 0 500
.dc V1 0 5 0.1
.backanno
.end
