Version 4
SHEET 1 880 680
WIRE 208 48 -48 48
WIRE -48 112 -48 48
WIRE 208 160 208 128
WIRE -48 240 -48 192
WIRE 208 240 208 224
WIRE 208 240 -48 240
WIRE -48 256 -48 240
FLAG -48 256 0
SYMBOL voltage -48 96 R0
WINDOW 123 0 0 Left 0
WINDOW 39 0 0 Left 0
SYMATTR InstName V1
SYMATTR Value 200
SYMBOL res 192 32 R0
SYMATTR InstName R1
SYMATTR Value 1k
SYMBOL zener 224 224 R180
WINDOW 0 24 64 Left 2
WINDOW 3 24 0 Left 2
SYMATTR InstName D1
SYMATTR Value 1N5371B
SYMATTR Description Diode
SYMATTR Type diode
TEXT -80 280 Left 2 !.dc V1 0 150 1
